# generated using pymatgen
data_Si13P3
_symmetry_space_group_name_H-M   'P 1'
_cell_length_a   7.69855680
_cell_length_b   7.69855882
_cell_length_c   7.69855600
_cell_angle_alpha   60.00001213
_cell_angle_beta   60.00000347
_cell_angle_gamma   60.00001098
_symmetry_Int_Tables_number   1
_chemical_formula_structural   Si13P3
_chemical_formula_sum   'Si13 P3'
_cell_volume   322.63621438
_cell_formula_units_Z   1
loop_
 _symmetry_equiv_pos_site_id
 _symmetry_equiv_pos_as_xyz
  1  'x, y, z'
loop_
 _atom_site_type_symbol
 _atom_site_label
 _atom_site_symmetry_multiplicity
 _atom_site_fract_x
 _atom_site_fract_y
 _atom_site_fract_z
 _atom_site_occupancy
  Si  Si0  1  0.43750000  0.43750000  0.43750000  1.0
  Si  Si0  1  0.43750000  0.43750000  0.93750000  1.0
  Si  Si0  1  0.43750000  0.93750000  0.43750000  1.0
  Si  Si0  1  0.43750000  0.93750000  0.93750000  1.0
  Si  Si0  1  0.93750000  0.43750000  0.43750000  1.0
  P  P5  1  0.93750000  0.43750000  0.93750000  1
  P  P6  1  0.93750000  0.93750000  0.43750000  1
  Si  Si0  1  0.93750000  0.93750000  0.93750000  1.0
  Si  Si1  1  0.06250000  0.06250000  0.06250000  1.0
  Si  Si1  1  0.06250000  0.06250000  0.56250000  1.0
  Si  Si1  1  0.06250000  0.56250000  0.06250000  1.0
  Si  Si1  1  0.06250000  0.56250000  0.56250000  1.0
  Si  Si1  1  0.56250000  0.06250000  0.06250000  1.0
  P  P13  1  0.56250000  0.06250000  0.56250000  1
  Si  Si1  1  0.56250000  0.56250000  0.06250000  1.0
  Si  Si1  1  0.56250000  0.56250000  0.56250000  1.0
